/*--------------------------------*- C++ -*----------------------------------*\
| =========                 |                                                 |
| \\      /  F ield         | OpenFOAM: The Open Source CFD Toolbox           |
|  \\    /   O peration     | Version:  5                                     |
|   \\  /    A nd           | Web:      www.OpenFOAM.org                      |
|    \\/     M anipulation  |                                                 |
\*---------------------------------------------------------------------------*/
FoamFile
{
    version     2.0;
    format      ascii;
    class       dictionary;
    location    "constant";
    object      dynamicMeshDict;
}
// * * * * * * * * * * * * * * * * * * * * * * * * * * * * * * * * * * * * * //

dynamicFvMesh   dynamicRefineFvMesh;

// How often to refine
refineInterval  20;

// Refine cells only up to maxRefinement levels
maxRefinement   3;

// Have slower than 2:1 refinement
nBufferLayers   6;

// Field to be refinement on
field           alpha.water;

// Refine field inbetween lower..upper
lowerRefineLevel 0.1;
upperRefineLevel 1.0;

// Stop refinement if maxCells reached
maxCells        50000000;

// Flux field and corresponding velocity field. Fluxes on changed
// faces get recalculated by interpolating the velocity. Use 'none'
// on surfaceScalarFields that do not need to be reinterpolated.
correctFluxes
(
    (phi none)
    (nHatf none)
    (rhoPhi none)
    (ghf none)
    (dVf_ none)
    (alphaPhi_ none)
);

// Write the refinement level as a volScalarField
dumpLevel       true;

// ************************************************************************* //
